xul  4.004420000000E+005 
yul  4.800704000000E+006 
rotation  0.000000000000E+000 
length_units meters
time_units days
start_date 1/1/2000
start_time 0:0:0
model MODFLOW-NWT
epsg 32614
